Version 4
SHEET 1 1860 956
WIRE 1248 -912 1248 -960
WIRE 1248 -800 1248 -832
WIRE 1248 -800 1056 -800
WIRE 1312 -800 1248 -800
WIRE 1472 -800 1376 -800
WIRE 1248 -752 1248 -800
WIRE 1248 -656 1248 -672
WIRE 1632 -624 1632 -688
WIRE 832 -560 752 -560
WIRE 944 -560 896 -560
WIRE 704 -528 608 -528
WIRE 832 -528 704 -528
WIRE 1056 -528 1056 -800
WIRE 1056 -528 896 -528
WIRE 1008 -496 896 -496
WIRE 1632 -496 1632 -544
WIRE 1632 -496 1008 -496
WIRE 1632 -448 1632 -496
WIRE 704 -384 704 -528
WIRE 736 -384 704 -384
WIRE 896 -384 800 -384
WIRE 1008 -384 1008 -496
WIRE 1008 -384 976 -384
WIRE 1632 -320 1632 -368
WIRE -656 -288 -656 -320
WIRE 704 -272 704 -384
WIRE 816 -272 704 -272
WIRE 1008 -272 1008 -384
WIRE 1008 -272 880 -272
WIRE -1072 -192 -1072 -272
WIRE -976 -192 -1072 -192
WIRE -656 -192 -656 -224
WIRE -656 -192 -752 -192
WIRE -480 -192 -656 -192
WIRE -384 -192 -480 -192
WIRE -976 -128 -1056 -128
WIRE -608 -128 -752 -128
WIRE -608 -96 -608 -128
WIRE -480 -96 -480 -112
WIRE -480 -96 -608 -96
WIRE -640 -64 -752 -64
WIRE -640 -16 -640 -64
WIRE -480 -16 -640 -16
WIRE -480 0 -480 -16
WIRE 864 48 768 48
WIRE 944 48 864 48
WIRE 1008 48 1008 32
WIRE 1008 48 944 48
WIRE 768 64 768 48
WIRE 864 64 864 48
WIRE 944 64 944 48
WIRE -480 80 -480 64
WIRE -1056 112 -1056 -128
WIRE -640 112 -640 -16
WIRE -640 112 -1056 112
WIRE -128 112 -160 112
WIRE -32 112 -64 112
WIRE 656 112 528 112
WIRE 1008 112 1008 48
WIRE 1136 112 1008 112
WIRE 768 144 768 128
WIRE 864 144 864 128
WIRE 944 144 944 128
WIRE 1008 144 1008 112
WIRE 1136 160 1136 112
WIRE -160 208 -160 112
WIRE -160 208 -256 208
WIRE -128 208 -160 208
WIRE -32 208 -32 112
WIRE -32 208 -48 208
WIRE 16 208 -32 208
WIRE 112 208 16 208
WIRE 688 224 480 224
WIRE 896 224 768 224
WIRE 960 224 896 224
WIRE -384 240 -384 160
WIRE 352 240 192 240
WIRE 656 256 656 112
WIRE 656 256 480 256
WIRE -640 272 -640 112
WIRE -416 272 -640 272
WIRE -256 272 -256 208
WIRE -256 272 -336 272
WIRE 112 272 112 208
WIRE 352 272 112 272
WIRE 656 272 656 256
WIRE 1008 272 1008 240
WIRE 1136 272 1136 224
WIRE 1136 272 1008 272
WIRE 16 288 16 272
WIRE 528 288 528 176
WIRE 528 288 480 288
WIRE 800 288 528 288
WIRE -416 304 -464 304
WIRE -256 304 -336 304
WIRE 352 304 272 304
WIRE -256 336 -256 304
WIRE -144 336 -256 336
WIRE -128 336 -144 336
WIRE -16 336 -48 336
WIRE 64 336 -16 336
WIRE 352 336 64 336
WIRE 544 336 480 336
WIRE 656 336 544 336
WIRE 672 336 656 336
WIRE 800 336 800 288
WIRE 896 336 896 304
WIRE 896 336 800 336
WIRE 1008 336 1008 272
WIRE 1008 336 896 336
WIRE 1088 336 1008 336
WIRE 1088 352 1088 336
WIRE 1216 352 1088 352
WIRE 1360 352 1296 352
WIRE 1616 352 1360 352
WIRE 1632 352 1616 352
WIRE 64 368 64 336
WIRE 352 368 192 368
WIRE 512 368 480 368
WIRE 576 368 512 368
WIRE 1616 368 1616 352
WIRE -384 384 -384 336
WIRE -368 384 -368 336
WIRE -368 384 -384 384
WIRE 1008 384 1008 336
WIRE 1136 384 1008 384
WIRE 1360 384 1360 352
WIRE 192 400 192 368
WIRE 608 400 480 400
WIRE 1008 400 1008 384
WIRE -368 416 -368 384
WIRE 1136 416 1136 384
WIRE -144 432 -144 336
WIRE -112 432 -144 432
WIRE -16 432 -16 336
WIRE -16 432 -48 432
WIRE -400 448 -400 336
WIRE 64 448 64 432
WIRE 608 448 608 400
WIRE 608 448 576 448
WIRE 608 480 608 448
WIRE 688 480 608 480
WIRE 896 480 768 480
WIRE 960 480 896 480
WIRE 544 496 544 336
WIRE 1008 512 1008 496
WIRE 1136 512 1136 480
WIRE 1136 512 1008 512
WIRE 512 640 512 368
WIRE 544 640 544 560
WIRE 544 640 512 640
WIRE 896 640 896 560
WIRE 896 640 544 640
WIRE 1008 640 1008 512
WIRE 1008 640 896 640
WIRE 1360 640 1360 448
WIRE 1360 640 1008 640
WIRE 1616 640 1616 448
WIRE 1616 640 1360 640
WIRE -368 688 -368 624
WIRE -144 688 -144 624
WIRE 16 688 16 624
WIRE 144 688 144 608
WIRE 1008 736 1008 640
WIRE -144 832 -144 768
WIRE 16 832 16 768
WIRE 144 848 144 768
WIRE -368 864 -368 768
FLAG 272 304 0
FLAG 192 240 Vs
FLAG 16 832 0
FLAG 144 848 0
FLAG 16 624 Vs
FLAG 144 608 +11
FLAG 1008 736 0
FLAG -144 624 0
FLAG -144 832 Vs-
FLAG -368 864 0
FLAG -368 624 Vcon
FLAG -384 160 Vs
FLAG -400 448 Vs-
FLAG -368 416 0
FLAG -656 -320 0
FLAG -480 80 0
FLAG -1072 -272 Vs-
FLAG -384 -192 Vs
FLAG 192 400 0
FLAG 1632 352 Vout
FLAG 944 -560 Vs
FLAG 752 -560 Vs-
FLAG 608 -528 Vcomp
FLAG 672 336 +11
FLAG 1008 32 +11
FLAG 1632 -320 0
FLAG 1632 -688 Vout
FLAG 768 144 0
FLAG 864 144 0
FLAG 944 144 0
FLAG 1248 -656 0
FLAG 1248 -960 Vs
FLAG 1472 -800 Vcon
FLAG -464 304 Vcomp
FLAG 64 448 0
FLAG 16 288 0
SYMBOL AutoGenerated/IR2110 416 304 R0
SYMATTR InstName U1
SYMBOL Voltage 16 672 R0
SYMATTR InstName V1
SYMATTR Value 5
SYMBOL Voltage 144 672 R0
SYMATTR InstName V2
SYMATTR Value 11
SYMBOL nmos 960 144 R0
SYMATTR InstName M1
SYMATTR Value Si7336ADP
SYMBOL nmos 960 400 R0
SYMATTR InstName M2
SYMBOL Res 784 208 R90
WINDOW 0 0 56 VBottom 2
WINDOW 3 32 56 VTop 2
SYMATTR InstName R1
SYMATTR Value 18
SYMBOL Res 784 464 R90
WINDOW 0 0 56 VBottom 2
WINDOW 3 32 56 VTop 2
SYMATTR InstName R2
SYMATTR Value 18
SYMBOL cap 512 112 R0
SYMATTR InstName C2
SYMATTR Value 47n
SYMATTR SpiceLine Rser=73.3m Lser=0 mfg="KEMET" pn="C0402C473K7PAC" type="X5R"
SYMBOL schottky 672 336 R180
WINDOW 0 24 64 Left 2
WINDOW 3 24 0 Left 2
SYMATTR InstName D1
SYMBOL Res 880 208 R0
SYMATTR InstName R4
SYMATTR Value 10k
SYMBOL Res 880 464 R0
SYMATTR InstName R5
SYMATTR Value 10k
SYMBOL Comparators/LT1016 -384 224 R0
SYMATTR InstName U3
SYMBOL Voltage -144 672 R0
SYMATTR InstName V4
SYMATTR Value 5
SYMBOL Voltage -368 672 R0
SYMATTR InstName V5
SYMATTR Value SINE(0 1 10k)
SYMATTR SpiceLine Rser=50
SYMBOL Misc/NE555 -864 -96 R0
SYMATTR InstName U2
SYMBOL Cap -672 -288 R0
SYMATTR InstName C3
SYMATTR Value 0.1”
SYMBOL Res -496 -208 R0
SYMATTR InstName R6
SYMATTR Value 1k
SYMBOL Res -496 -112 R0
SYMATTR InstName R8
SYMATTR Value 3k
SYMBOL Cap -496 0 R0
SYMATTR InstName C4
SYMATTR Value 1n
SYMBOL ind 1200 368 R270
WINDOW 0 32 56 VTop 2
WINDOW 3 5 56 VBottom 2
SYMATTR InstName L2
SYMATTR Value 15”
SYMBOL polcap 1344 384 R0
WINDOW 3 24 56 Left 2
SYMATTR InstName C6
SYMATTR Value 1”
SYMATTR Description Capacitor
SYMATTR Type cap
SYMATTR SpiceLine V=ishay Rser=3 Lser=0 mfg="   ---" pn="   ---" type="   ---"
SYMBOL Res 1600 352 R0
SYMATTR InstName R3
SYMATTR Value 8
SYMBOL diode 1152 480 R180
WINDOW 0 24 64 Left 2
WINDOW 3 24 0 Left 2
SYMATTR InstName D4
SYMATTR Value VS-E5PH6006
SYMATTR Description Schottky diode
SYMATTR Type schottky
SYMBOL diode 1152 224 R180
WINDOW 0 24 64 Left 2
WINDOW 3 24 0 Left 2
SYMATTR InstName D5
SYMATTR Value VS-E5PH6006
SYMATTR Description Schottky diode
SYMATTR Type schottky
SYMBOL cap 528 496 R0
SYMATTR InstName C8
SYMATTR Value 100n
SYMATTR SpiceLine Rser=0 Lser=0 mfg="Murata" pn="GRM032R60G104KE15" type="X5R"
SYMBOL AutoGenerated/TL072 864 -528 R0
SYMATTR InstName U4
SYMBOL Res 992 -400 R90
WINDOW 0 0 56 VBottom 2
WINDOW 3 32 56 VTop 2
SYMATTR InstName R9
SYMATTR Value 86.5k
SYMBOL Cap 800 -400 R90
WINDOW 0 0 32 VBottom 2
WINDOW 3 32 32 VTop 2
SYMATTR InstName C9
SYMATTR Value 510p
SYMBOL res 1616 -640 R0
SYMATTR InstName R10
SYMATTR Value 10k
SYMBOL res 1616 -464 R0
SYMATTR InstName R11
SYMATTR Value 5.6k
SYMBOL polcap 752 64 R0
WINDOW 3 24 56 Left 2
SYMATTR InstName C1
SYMATTR Value 100”
SYMATTR Description Capacitor
SYMATTR Type cap
SYMATTR SpiceLine Rser=1.6231 Lser=2.551n mfg="   ---" pn="   ---" type="   ---"
SYMBOL res 560 352 R0
SYMATTR InstName R7
SYMATTR Value 1k
SYMBOL cap 848 64 R0
SYMATTR InstName C7
SYMATTR Value 1”
SYMATTR SpiceLine Rser=18m Lser=0 mfg="KEMET" pn="C1210F105K3RAC" type="X7R"
SYMBOL cap 928 64 R0
SYMATTR InstName C10
SYMATTR Value 100n
SYMBOL res 1232 -928 R0
SYMATTR InstName R12
SYMATTR Value 3.9k
SYMBOL res 1232 -768 R0
SYMATTR InstName R13
SYMATTR Value 4.7k
SYMBOL cap 880 -288 R90
WINDOW 0 0 32 VBottom 2
WINDOW 3 32 32 VTop 2
SYMATTR InstName C11
SYMATTR Value 100p
SYMBOL polcap 1312 -784 R270
WINDOW 0 32 32 VTop 2
WINDOW 3 0 32 VBottom 2
SYMATTR InstName C12
SYMATTR Value 1”
SYMATTR Description Capacitor
SYMATTR Type cap
SYMATTR SpiceLine Rser=9.6 Lser=0 mfg="Vishay" pn="293D105M010A" type="Tantalum"
SYMBOL res -32 320 R90
WINDOW 0 0 56 VBottom 2
WINDOW 3 32 56 VTop 2
SYMATTR InstName R15
SYMATTR Value 120
SYMBOL diode -112 448 R270
WINDOW 0 32 32 VTop 2
WINDOW 3 0 32 VBottom 2
SYMATTR InstName D2
SYMATTR Value 1N4148
SYMBOL cap 48 368 R0
SYMATTR InstName C5
SYMATTR Value 33p
SYMBOL res -32 192 R90
WINDOW 0 0 56 VBottom 2
WINDOW 3 32 56 VTop 2
SYMATTR InstName R16
SYMATTR Value 100
SYMBOL diode -128 128 R270
WINDOW 0 32 32 VTop 2
WINDOW 3 0 32 VBottom 2
SYMATTR InstName D3
SYMATTR Value 1N4148
SYMBOL cap 0 208 R0
SYMATTR InstName C13
SYMATTR Value 33p
TEXT -80 -112 Left 2 !.tran 0 1m 0 10n\n.meas TRAN Vout_max  MAX   V(Vout)                          FROM 1.8m TO 2m\n.meas TRAN Vout_min  MIN   V(Vout)                          FROM 1.8m TO 2m\n.meas TRAN Ripple_pp PARAM Vout_max-Vout_min\n.meas TRAN Ripple_rms RMS  V(Vout)                          FROM 1.8m TO 2m\n.meas TRAN Vout_avg  AVG   V(Vout)                          FROM 1.8m TO 2m\n.meas TRAN Ripple_pct PARAM (Vout_max-Vout_min)/Vout_avg*100
